ASP-2025-TRTAP.PWF
(
( Gravacao de .PWF - CART
( Versao do Anarede: 11.07.00
( Data e Hora da Gravacao: 24/10/2025 - 16:45:24                                                           
(
TITU
Região-Vale-Paraiba-2026-Maxima-Diurna                                          
DBAR
(Num)OETGb(   nome   )Gl( V)( A)( Pg)( Qg)( Qn)( Qm)(Bc  )( Pl)( Ql)( Sh)Are(Vf)M(1)(2)(3)(4)(5)(6)(7)(8)(9)(10
   27 L2  CPAUL2-SP500 31059-25.1323.-161.-10001000.                     2021000                                   
   77 L   TPRETO-SP500 31060-34.                           828. 38.3     2021000                                   
  454 L   S.JOSE-SP230 5 994-42.                           623. 22.3     2051000                                   
  458 L   APAREC-SP230 51023-31.                                         2051000                                   
  459 L   APAREC-SP088 51012-33.                                         2131000                                   
  461 L   S.CABE-SP230 51020-30.                           93.9 32.8     2051000                                   
  600 L1  TAUBAT-SP230 51034-33. 466.256.4-300. 300.                     2051000                                   
 3383 L   LORENA-SP500 31060-26.                                         2021000                                   
 3384 L   LORENA-SP230 51023-29.                                         2051000                                   
 3459 L   APARE2-SP088 51016-33. 16.5   0.                 93.5 16.5     215 977                                   
 9123 L   GV-BRA-SP230 51021-32.                           140.   0. -70.2051000                                   
41956 L   LORET1-SP000 61024-30.                                         20210001                                  
41957 L   LORET1-SP013 61024-30.                                         2021000                                   
99999
DLIN
(De )d O d(Pa )NcEPM( R% )( X% )(Mvar)(Tap)(Tmn)(Tmx)(Phs)(Bc  )(Cn)(Ce)Ns(Cq)(1)(2)(3)(4)(5)(6)(7)(8)(9)(10
   27      3383 1     .014  .205 30.35                          27282728  2728                                
   77      3383 1     .114 1.712259.62                          27282728  2728                                
  454       600 1 T   .362 2.589  7.94                          686.806.  806.                                
  458       459 1      .0910.942         1. .8371.076       -459100.120.17150.                                
  458       459 2  N  .08810.851         1. .8371.076       -459100.120.17686.                                
  458       459 3  N  .08911.079         1. .8371.076       -459100.120.17 50.                                
  458      3384 1     .222 1.442 5.352                          686.797.  686.                                
  458      3384 2     .237 1.458  5.32                          597.597.  597.                                
  458      9123 1    .18821.2346  4.55                          686.797.  686.                                
  461      3384 1     .213 1.389 5.154                          597.597.  597.                                
  461      3384 2     .219 1.404 5.123                          597.597.  597.                                
  600       458 1    .42362.7777 10.24                          686.797.  686.                                
  600      9123 1    .26191.7176  6.33                          686.797.  797.                                
 3383     41956 3     .006 1.334      1.039   .9  1.1       338412001440331680                                
 3384     41956 1     .006 -.204         1.                     12001440  1680                                
 3459       459 1            .01                                99999999  9999                                
41957     41956 1     .52726.149         1.                      60. 60.   60.                                
99999
DBSH
(NFr) O (NTo) Nc C (Vmn (Vmx Bctrl (Qini) T A (Extr
  459            C 0800 1200   459        C         
(G  O E (U) UOp (Sht ) M
 1        1   0    21. S
FBAN
(NFr) O (NTo) Nc C (Vmn (Vmx Bctrl (Qini) T A (Extr
 3383            C 0800 1200  3383        C         
(G  O E (U) UOp (Sht ) M
 1        1   0  -180. S
FBAN
99999
DGER
(No ) O (Pmn ) (Pmx ) ( Fp) (FpR) (FPn) (Fa) (Fr) (Ag) ( Xq) (Sno) (Est)
99999
DCAR
(tp) (no ) C (tp) (no ) C (tp) (no ) C (tp) (no ) O (A) (B) (C) (D) (Vfl)
99999
FIM
